* NGSPICE file created from OQPSK_RCOSINE_ALL.ext - technology: gf180mcuC

* Black-box entry subcircuit for gf180mcu_fd_sc_mcu7t5v0__filltie abstract view
.subckt gf180mcu_fd_sc_mcu7t5v0__filltie VDD VSS
.ends

* Black-box entry subcircuit for gf180mcu_fd_sc_mcu7t5v0__fill_2 abstract view
.subckt gf180mcu_fd_sc_mcu7t5v0__fill_2 VDD VSS
.ends

* Black-box entry subcircuit for gf180mcu_fd_sc_mcu7t5v0__fillcap_8 abstract view
.subckt gf180mcu_fd_sc_mcu7t5v0__fillcap_8 VDD VSS
.ends

* Black-box entry subcircuit for gf180mcu_fd_sc_mcu7t5v0__fill_1 abstract view
.subckt gf180mcu_fd_sc_mcu7t5v0__fill_1 VDD VSS
.ends

* Black-box entry subcircuit for gf180mcu_fd_sc_mcu7t5v0__fillcap_4 abstract view
.subckt gf180mcu_fd_sc_mcu7t5v0__fillcap_4 VDD VSS
.ends

* Black-box entry subcircuit for gf180mcu_fd_sc_mcu7t5v0__clkbuf_1 abstract view
.subckt gf180mcu_fd_sc_mcu7t5v0__clkbuf_1 I Z VDD VSS
.ends

* Black-box entry subcircuit for gf180mcu_fd_sc_mcu7t5v0__antenna abstract view
.subckt gf180mcu_fd_sc_mcu7t5v0__antenna I VDD VSS
.ends

* Black-box entry subcircuit for gf180mcu_fd_sc_mcu7t5v0__nor2_1 abstract view
.subckt gf180mcu_fd_sc_mcu7t5v0__nor2_1 A1 A2 ZN VDD VSS
.ends

* Black-box entry subcircuit for gf180mcu_fd_sc_mcu7t5v0__fillcap_16 abstract view
.subckt gf180mcu_fd_sc_mcu7t5v0__fillcap_16 VDD VSS
.ends

* Black-box entry subcircuit for gf180mcu_fd_sc_mcu7t5v0__dffrnq_1 abstract view
.subckt gf180mcu_fd_sc_mcu7t5v0__dffrnq_1 D RN CLK Q VDD VSS
.ends

* Black-box entry subcircuit for gf180mcu_fd_sc_mcu7t5v0__xnor2_1 abstract view
.subckt gf180mcu_fd_sc_mcu7t5v0__xnor2_1 A1 A2 ZN VDD VSS
.ends

* Black-box entry subcircuit for gf180mcu_fd_sc_mcu7t5v0__clkinv_1 abstract view
.subckt gf180mcu_fd_sc_mcu7t5v0__clkinv_1 I ZN VDD VSS
.ends

* Black-box entry subcircuit for gf180mcu_fd_sc_mcu7t5v0__nand4_1 abstract view
.subckt gf180mcu_fd_sc_mcu7t5v0__nand4_1 A1 A2 A3 A4 ZN VDD VSS
.ends

* Black-box entry subcircuit for gf180mcu_fd_sc_mcu7t5v0__and2_1 abstract view
.subckt gf180mcu_fd_sc_mcu7t5v0__and2_1 A1 A2 Z VDD VSS
.ends

* Black-box entry subcircuit for gf180mcu_fd_sc_mcu7t5v0__buf_1 abstract view
.subckt gf180mcu_fd_sc_mcu7t5v0__buf_1 I Z VDD VSS
.ends

* Black-box entry subcircuit for gf180mcu_fd_sc_mcu7t5v0__and3_1 abstract view
.subckt gf180mcu_fd_sc_mcu7t5v0__and3_1 A1 A2 A3 Z VDD VSS
.ends

* Black-box entry subcircuit for gf180mcu_fd_sc_mcu7t5v0__and4_1 abstract view
.subckt gf180mcu_fd_sc_mcu7t5v0__and4_1 A1 A2 A3 A4 Z VDD VSS
.ends

* Black-box entry subcircuit for gf180mcu_fd_sc_mcu7t5v0__nand4_2 abstract view
.subckt gf180mcu_fd_sc_mcu7t5v0__nand4_2 A1 A2 A3 A4 ZN VDD VSS
.ends

* Black-box entry subcircuit for gf180mcu_fd_sc_mcu7t5v0__aoi21_1 abstract view
.subckt gf180mcu_fd_sc_mcu7t5v0__aoi21_1 A1 A2 B ZN VDD VSS
.ends

* Black-box entry subcircuit for gf180mcu_fd_sc_mcu7t5v0__nand3_1 abstract view
.subckt gf180mcu_fd_sc_mcu7t5v0__nand3_1 A1 A2 A3 ZN VDD VSS
.ends

* Black-box entry subcircuit for gf180mcu_fd_sc_mcu7t5v0__xor2_1 abstract view
.subckt gf180mcu_fd_sc_mcu7t5v0__xor2_1 A1 A2 Z VDD VSS
.ends

* Black-box entry subcircuit for gf180mcu_fd_sc_mcu7t5v0__nor3_1 abstract view
.subckt gf180mcu_fd_sc_mcu7t5v0__nor3_1 A1 A2 A3 ZN VDD VSS
.ends

* Black-box entry subcircuit for gf180mcu_fd_sc_mcu7t5v0__nand2_1 abstract view
.subckt gf180mcu_fd_sc_mcu7t5v0__nand2_1 A1 A2 ZN VDD VSS
.ends

* Black-box entry subcircuit for gf180mcu_fd_sc_mcu7t5v0__oai211_1 abstract view
.subckt gf180mcu_fd_sc_mcu7t5v0__oai211_1 A1 A2 B C ZN VDD VSS
.ends

* Black-box entry subcircuit for gf180mcu_fd_sc_mcu7t5v0__or2_1 abstract view
.subckt gf180mcu_fd_sc_mcu7t5v0__or2_1 A1 A2 Z VDD VSS
.ends

* Black-box entry subcircuit for gf180mcu_fd_sc_mcu7t5v0__oai21_1 abstract view
.subckt gf180mcu_fd_sc_mcu7t5v0__oai21_1 A1 A2 B ZN VDD VSS
.ends

* Black-box entry subcircuit for gf180mcu_fd_sc_mcu7t5v0__mux2_2 abstract view
.subckt gf180mcu_fd_sc_mcu7t5v0__mux2_2 I0 I1 S Z VDD VSS
.ends

* Black-box entry subcircuit for gf180mcu_fd_sc_mcu7t5v0__or3_1 abstract view
.subckt gf180mcu_fd_sc_mcu7t5v0__or3_1 A1 A2 A3 Z VDD VSS
.ends

* Black-box entry subcircuit for gf180mcu_fd_sc_mcu7t5v0__clkbuf_3 abstract view
.subckt gf180mcu_fd_sc_mcu7t5v0__clkbuf_3 I Z VDD VSS
.ends

* Black-box entry subcircuit for gf180mcu_fd_sc_mcu7t5v0__oai211_2 abstract view
.subckt gf180mcu_fd_sc_mcu7t5v0__oai211_2 A1 A2 B C ZN VDD VSS
.ends

* Black-box entry subcircuit for gf180mcu_fd_sc_mcu7t5v0__clkbuf_2 abstract view
.subckt gf180mcu_fd_sc_mcu7t5v0__clkbuf_2 I Z VDD VSS
.ends

* Black-box entry subcircuit for gf180mcu_fd_sc_mcu7t5v0__aoi211_2 abstract view
.subckt gf180mcu_fd_sc_mcu7t5v0__aoi211_2 A1 A2 B C ZN VDD VSS
.ends

* Black-box entry subcircuit for gf180mcu_fd_sc_mcu7t5v0__aoi211_4 abstract view
.subckt gf180mcu_fd_sc_mcu7t5v0__aoi211_4 A1 A2 B C ZN VDD VSS
.ends

* Black-box entry subcircuit for gf180mcu_fd_sc_mcu7t5v0__oai31_1 abstract view
.subckt gf180mcu_fd_sc_mcu7t5v0__oai31_1 A1 A2 A3 B ZN VDD VSS
.ends

* Black-box entry subcircuit for gf180mcu_fd_sc_mcu7t5v0__xor2_2 abstract view
.subckt gf180mcu_fd_sc_mcu7t5v0__xor2_2 A1 A2 Z VDD VSS
.ends

* Black-box entry subcircuit for gf180mcu_fd_sc_mcu7t5v0__oai221_1 abstract view
.subckt gf180mcu_fd_sc_mcu7t5v0__oai221_1 A1 A2 B1 B2 C ZN VDD VSS
.ends

* Black-box entry subcircuit for gf180mcu_fd_sc_mcu7t5v0__aoi22_1 abstract view
.subckt gf180mcu_fd_sc_mcu7t5v0__aoi22_1 A1 A2 B1 B2 ZN VDD VSS
.ends

* Black-box entry subcircuit for gf180mcu_fd_sc_mcu7t5v0__aoi211_1 abstract view
.subckt gf180mcu_fd_sc_mcu7t5v0__aoi211_1 A1 A2 B C ZN VDD VSS
.ends

* Black-box entry subcircuit for gf180mcu_fd_sc_mcu7t5v0__oai32_1 abstract view
.subckt gf180mcu_fd_sc_mcu7t5v0__oai32_1 A1 A2 A3 B1 B2 ZN VDD VSS
.ends

* Black-box entry subcircuit for gf180mcu_fd_sc_mcu7t5v0__fillcap_32 abstract view
.subckt gf180mcu_fd_sc_mcu7t5v0__fillcap_32 VDD VSS
.ends

* Black-box entry subcircuit for gf180mcu_fd_sc_mcu7t5v0__nor4_1 abstract view
.subckt gf180mcu_fd_sc_mcu7t5v0__nor4_1 A1 A2 A3 A4 ZN VDD VSS
.ends

* Black-box entry subcircuit for gf180mcu_fd_sc_mcu7t5v0__nand2_2 abstract view
.subckt gf180mcu_fd_sc_mcu7t5v0__nand2_2 A1 A2 ZN VDD VSS
.ends

* Black-box entry subcircuit for gf180mcu_fd_sc_mcu7t5v0__fillcap_64 abstract view
.subckt gf180mcu_fd_sc_mcu7t5v0__fillcap_64 VDD VSS
.ends

* Black-box entry subcircuit for gf180mcu_fd_sc_mcu7t5v0__aoi221_2 abstract view
.subckt gf180mcu_fd_sc_mcu7t5v0__aoi221_2 A1 A2 B1 B2 C ZN VDD VSS
.ends

* Black-box entry subcircuit for gf180mcu_fd_sc_mcu7t5v0__aoi22_2 abstract view
.subckt gf180mcu_fd_sc_mcu7t5v0__aoi22_2 A1 A2 B1 B2 ZN VDD VSS
.ends

* Black-box entry subcircuit for gf180mcu_fd_sc_mcu7t5v0__aoi221_1 abstract view
.subckt gf180mcu_fd_sc_mcu7t5v0__aoi221_1 A1 A2 B1 B2 C ZN VDD VSS
.ends

* Black-box entry subcircuit for gf180mcu_fd_sc_mcu7t5v0__oai221_2 abstract view
.subckt gf180mcu_fd_sc_mcu7t5v0__oai221_2 A1 A2 B1 B2 C ZN VDD VSS
.ends

* Black-box entry subcircuit for gf180mcu_fd_sc_mcu7t5v0__nor4_4 abstract view
.subckt gf180mcu_fd_sc_mcu7t5v0__nor4_4 A1 A2 A3 A4 ZN VDD VSS
.ends

* Black-box entry subcircuit for gf180mcu_fd_sc_mcu7t5v0__nor2_2 abstract view
.subckt gf180mcu_fd_sc_mcu7t5v0__nor2_2 A1 A2 ZN VDD VSS
.ends

* Black-box entry subcircuit for gf180mcu_fd_sc_mcu7t5v0__nor3_2 abstract view
.subckt gf180mcu_fd_sc_mcu7t5v0__nor3_2 A1 A2 A3 ZN VDD VSS
.ends

* Black-box entry subcircuit for gf180mcu_fd_sc_mcu7t5v0__aoi21_2 abstract view
.subckt gf180mcu_fd_sc_mcu7t5v0__aoi21_2 A1 A2 B ZN VDD VSS
.ends

* Black-box entry subcircuit for gf180mcu_fd_sc_mcu7t5v0__endcap abstract view
.subckt gf180mcu_fd_sc_mcu7t5v0__endcap VDD VSS
.ends

* Black-box entry subcircuit for gf180mcu_fd_sc_mcu7t5v0__or4_1 abstract view
.subckt gf180mcu_fd_sc_mcu7t5v0__or4_1 A1 A2 A3 A4 Z VDD VSS
.ends

* Black-box entry subcircuit for gf180mcu_fd_sc_mcu7t5v0__aoi21_4 abstract view
.subckt gf180mcu_fd_sc_mcu7t5v0__aoi21_4 A1 A2 B ZN VDD VSS
.ends

* Black-box entry subcircuit for gf180mcu_fd_sc_mcu7t5v0__oai21_2 abstract view
.subckt gf180mcu_fd_sc_mcu7t5v0__oai21_2 A1 A2 B ZN VDD VSS
.ends

* Black-box entry subcircuit for gf180mcu_fd_sc_mcu7t5v0__dlyb_1 abstract view
.subckt gf180mcu_fd_sc_mcu7t5v0__dlyb_1 I Z VDD VSS
.ends

* Black-box entry subcircuit for gf180mcu_fd_sc_mcu7t5v0__dlyc_1 abstract view
.subckt gf180mcu_fd_sc_mcu7t5v0__dlyc_1 I Z VDD VSS
.ends

* Black-box entry subcircuit for gf180mcu_fd_sc_mcu7t5v0__aoi221_4 abstract view
.subckt gf180mcu_fd_sc_mcu7t5v0__aoi221_4 A1 A2 B1 B2 C ZN VDD VSS
.ends

* Black-box entry subcircuit for gf180mcu_fd_sc_mcu7t5v0__xor3_1 abstract view
.subckt gf180mcu_fd_sc_mcu7t5v0__xor3_1 A1 A2 A3 Z VDD VSS
.ends

* Black-box entry subcircuit for gf180mcu_fd_sc_mcu7t5v0__aoi222_4 abstract view
.subckt gf180mcu_fd_sc_mcu7t5v0__aoi222_4 A1 A2 B1 B2 C1 C2 ZN VDD VSS
.ends

* Black-box entry subcircuit for gf180mcu_fd_sc_mcu7t5v0__xnor3_1 abstract view
.subckt gf180mcu_fd_sc_mcu7t5v0__xnor3_1 A1 A2 A3 ZN VDD VSS
.ends

* Black-box entry subcircuit for gf180mcu_fd_sc_mcu7t5v0__oai31_2 abstract view
.subckt gf180mcu_fd_sc_mcu7t5v0__oai31_2 A1 A2 A3 B ZN VDD VSS
.ends

* Black-box entry subcircuit for gf180mcu_fd_sc_mcu7t5v0__dffsnq_1 abstract view
.subckt gf180mcu_fd_sc_mcu7t5v0__dffsnq_1 D SETN CLK Q VDD VSS
.ends

* Black-box entry subcircuit for gf180mcu_fd_sc_mcu7t5v0__latrnq_1 abstract view
.subckt gf180mcu_fd_sc_mcu7t5v0__latrnq_1 D E RN Q VDD VSS
.ends

* Black-box entry subcircuit for gf180mcu_fd_sc_mcu7t5v0__xnor3_2 abstract view
.subckt gf180mcu_fd_sc_mcu7t5v0__xnor3_2 A1 A2 A3 ZN VDD VSS
.ends

* Black-box entry subcircuit for gf180mcu_fd_sc_mcu7t5v0__oai22_1 abstract view
.subckt gf180mcu_fd_sc_mcu7t5v0__oai22_1 A1 A2 B1 B2 ZN VDD VSS
.ends

* Black-box entry subcircuit for gf180mcu_fd_sc_mcu7t5v0__nor4_2 abstract view
.subckt gf180mcu_fd_sc_mcu7t5v0__nor4_2 A1 A2 A3 A4 ZN VDD VSS
.ends

* Black-box entry subcircuit for gf180mcu_fd_sc_mcu7t5v0__oai22_2 abstract view
.subckt gf180mcu_fd_sc_mcu7t5v0__oai22_2 A1 A2 B1 B2 ZN VDD VSS
.ends

* Black-box entry subcircuit for gf180mcu_fd_sc_mcu7t5v0__oai32_2 abstract view
.subckt gf180mcu_fd_sc_mcu7t5v0__oai32_2 A1 A2 A3 B1 B2 ZN VDD VSS
.ends

* Black-box entry subcircuit for gf180mcu_fd_sc_mcu7t5v0__nand3_4 abstract view
.subckt gf180mcu_fd_sc_mcu7t5v0__nand3_4 A1 A2 A3 ZN VDD VSS
.ends

* Black-box entry subcircuit for gf180mcu_fd_sc_mcu7t5v0__inv_1 abstract view
.subckt gf180mcu_fd_sc_mcu7t5v0__inv_1 I ZN VDD VSS
.ends

* Black-box entry subcircuit for gf180mcu_fd_sc_mcu7t5v0__oai221_4 abstract view
.subckt gf180mcu_fd_sc_mcu7t5v0__oai221_4 A1 A2 B1 B2 C ZN VDD VSS
.ends

* Black-box entry subcircuit for gf180mcu_fd_sc_mcu7t5v0__clkinv_2 abstract view
.subckt gf180mcu_fd_sc_mcu7t5v0__clkinv_2 I ZN VDD VSS
.ends

* Black-box entry subcircuit for gf180mcu_fd_sc_mcu7t5v0__nor2_4 abstract view
.subckt gf180mcu_fd_sc_mcu7t5v0__nor2_4 A1 A2 ZN VDD VSS
.ends

* Black-box entry subcircuit for gf180mcu_fd_sc_mcu7t5v0__nand3_2 abstract view
.subckt gf180mcu_fd_sc_mcu7t5v0__nand3_2 A1 A2 A3 ZN VDD VSS
.ends

* Black-box entry subcircuit for gf180mcu_fd_sc_mcu7t5v0__oai33_1 abstract view
.subckt gf180mcu_fd_sc_mcu7t5v0__oai33_1 A1 A2 A3 B1 B2 B3 ZN VDD VSS
.ends

.subckt OQPSK_RCOSINE_ALL ACK Bit_In EN I[0] I[10] I[11] I[12] I[1] I[2] I[3] I[4]
+ I[5] I[6] I[7] I[8] I[9] Q[0] Q[10] Q[11] Q[12] Q[1] Q[2] Q[3] Q[4] Q[5] Q[6] Q[7]
+ Q[8] Q[9] REQ_SAMPLE RST addI[0] addI[1] addI[2] addI[3] addI[4] addI[5] addQ[0]
+ addQ[1] addQ[2] addQ[3] addQ[4] addQ[5] vdd vss
XTAP_199 vdd vss gf180mcu_fd_sc_mcu7t5v0__filltie
XTAP_188 vdd vss gf180mcu_fd_sc_mcu7t5v0__filltie
XTAP_177 vdd vss gf180mcu_fd_sc_mcu7t5v0__filltie
XFILLER_39_211 vdd vss gf180mcu_fd_sc_mcu7t5v0__fill_2
XFILLER_39_222 vdd vss gf180mcu_fd_sc_mcu7t5v0__fillcap_8
XFILLER_39_277 vdd vss gf180mcu_fd_sc_mcu7t5v0__fill_1
XFILLER_54_236 vdd vss gf180mcu_fd_sc_mcu7t5v0__fillcap_4
XFILLER_27_428 vdd vss gf180mcu_fd_sc_mcu7t5v0__fill_1
X_2106_ _1173_ _1174_ vdd vss gf180mcu_fd_sc_mcu7t5v0__clkbuf_1
XANTENNA__1997__C _0532_ vdd vss gf180mcu_fd_sc_mcu7t5v0__antenna
X_2037_ _1071_ _1074_ _1109_ vdd vss gf180mcu_fd_sc_mcu7t5v0__nor2_1
XFILLER_35_483 vdd vss gf180mcu_fd_sc_mcu7t5v0__fill_2
XFILLER_10_339 vdd vss gf180mcu_fd_sc_mcu7t5v0__fill_2
XFILLER_10_328 vdd vss gf180mcu_fd_sc_mcu7t5v0__fillcap_4
XANTENNA__2706__A1 net48 vdd vss gf180mcu_fd_sc_mcu7t5v0__antenna
XANTENNA__2182__A2 _1245_ vdd vss gf180mcu_fd_sc_mcu7t5v0__antenna
XFILLER_18_439 vdd vss gf180mcu_fd_sc_mcu7t5v0__fill_2
XANTENNA_output37_I net37 vdd vss gf180mcu_fd_sc_mcu7t5v0__antenna
XFILLER_45_258 vdd vss gf180mcu_fd_sc_mcu7t5v0__fill_2
XANTENNA__2237__A3 _1316_ vdd vss gf180mcu_fd_sc_mcu7t5v0__antenna
XFILLER_26_472 vdd vss gf180mcu_fd_sc_mcu7t5v0__fillcap_4
XFILLER_13_133 vdd vss gf180mcu_fd_sc_mcu7t5v0__fill_2
XFILLER_41_420 vdd vss gf180mcu_fd_sc_mcu7t5v0__fillcap_4
XANTENNA__1996__A2 _0880_ vdd vss gf180mcu_fd_sc_mcu7t5v0__antenna
XFILLER_13_166 vdd vss gf180mcu_fd_sc_mcu7t5v0__fill_2
XFILLER_13_144 vdd vss gf180mcu_fd_sc_mcu7t5v0__fillcap_8
XFILLER_41_475 vdd vss gf180mcu_fd_sc_mcu7t5v0__fill_2
XFILLER_13_199 vdd vss gf180mcu_fd_sc_mcu7t5v0__fillcap_4
XFILLER_42_51 vdd vss gf180mcu_fd_sc_mcu7t5v0__fill_2
XFILLER_5_354 vdd vss gf180mcu_fd_sc_mcu7t5v0__fill_1
XFILLER_5_332 vdd vss gf180mcu_fd_sc_mcu7t5v0__fillcap_16
XANTENNA__2173__A2 _1227_ vdd vss gf180mcu_fd_sc_mcu7t5v0__antenna
XANTENNA__1684__A1 _0624_ vdd vss gf180mcu_fd_sc_mcu7t5v0__antenna
XFILLER_36_247 vdd vss gf180mcu_fd_sc_mcu7t5v0__fill_1
XFILLER_36_269 vdd vss gf180mcu_fd_sc_mcu7t5v0__fillcap_16
XFILLER_51_206 vdd vss gf180mcu_fd_sc_mcu7t5v0__fillcap_4
XANTENNA__1389__I net38 vdd vss gf180mcu_fd_sc_mcu7t5v0__antenna
XANTENNA__1987__A2 _0553_ vdd vss gf180mcu_fd_sc_mcu7t5v0__antenna
XANTENNA__1739__A2 _0537_ vdd vss gf180mcu_fd_sc_mcu7t5v0__antenna
X_2724_ gen_sym.Reg_2M.data_in net52 net45 gen_sym.Reg_Sym.data_out\[0\] vdd vss gf180mcu_fd_sc_mcu7t5v0__dffrnq_1
X_2655_ _0439_ _0442_ _0443_ vdd vss gf180mcu_fd_sc_mcu7t5v0__xnor2_1
X_1606_ p_shaping_Q.p_shaping_I.bit_in_2 _0686_ vdd vss gf180mcu_fd_sc_mcu7t5v0__clkinv_1
X_2586_ _0228_ _0146_ _0209_ _0331_ _0369_ vdd vss gf180mcu_fd_sc_mcu7t5v0__nand4_1
X_1537_ _0590_ _0617_ _0618_ vdd vss gf180mcu_fd_sc_mcu7t5v0__and2_1
XFILLER_59_339 vdd vss gf180mcu_fd_sc_mcu7t5v0__fill_2
X_1468_ _0548_ _0549_ vdd vss gf180mcu_fd_sc_mcu7t5v0__buf_1
X_1399_ net51 _0418_ vdd vss gf180mcu_fd_sc_mcu7t5v0__clkbuf_1
XFILLER_67_383 vdd vss gf180mcu_fd_sc_mcu7t5v0__fill_2
XFILLER_27_247 vdd vss gf180mcu_fd_sc_mcu7t5v0__fillcap_4
XANTENNA__2683__I _0467_ vdd vss gf180mcu_fd_sc_mcu7t5v0__antenna
XFILLER_63_28 vdd vss gf180mcu_fd_sc_mcu7t5v0__fill_2
XFILLER_27_269 vdd vss gf180mcu_fd_sc_mcu7t5v0__fill_2
XFILLER_42_217 vdd vss gf180mcu_fd_sc_mcu7t5v0__fillcap_4
XFILLER_35_280 vdd vss gf180mcu_fd_sc_mcu7t5v0__fillcap_4
XANTENNA__1978__A2 _0791_ vdd vss gf180mcu_fd_sc_mcu7t5v0__antenna
XFILLER_23_453 vdd vss gf180mcu_fd_sc_mcu7t5v0__fill_2
XFILLER_50_250 vdd vss gf180mcu_fd_sc_mcu7t5v0__fill_1
XANTENNA__2351__C _1195_ vdd vss gf180mcu_fd_sc_mcu7t5v0__antenna
XFILLER_58_383 vdd vss gf180mcu_fd_sc_mcu7t5v0__fillcap_4
XFILLER_18_247 vdd vss gf180mcu_fd_sc_mcu7t5v0__fill_1
XFILLER_18_258 vdd vss gf180mcu_fd_sc_mcu7t5v0__fill_1
XFILLER_37_73 vdd vss gf180mcu_fd_sc_mcu7t5v0__fill_1
XFILLER_14_453 vdd vss gf180mcu_fd_sc_mcu7t5v0__fill_1
XFILLER_14_486 vdd vss gf180mcu_fd_sc_mcu7t5v0__fill_2
XFILLER_41_272 vdd vss gf180mcu_fd_sc_mcu7t5v0__fillcap_4
XFILLER_41_283 vdd vss gf180mcu_fd_sc_mcu7t5v0__fill_1
X_2440_ _0041_ _0209_ _0208_ _0212_ vdd vss gf180mcu_fd_sc_mcu7t5v0__and3_1
X_2371_ _1319_ _1318_ _0055_ _0058_ _0138_ vdd vss gf180mcu_fd_sc_mcu7t5v0__and4_1
XANTENNA__1672__I p_shaping_Q.p_shaping_I.bit_in_2 vdd vss gf180mcu_fd_sc_mcu7t5v0__antenna
XFILLER_64_375 vdd vss gf180mcu_fd_sc_mcu7t5v0__fill_2
XFILLER_64_364 vdd vss gf180mcu_fd_sc_mcu7t5v0__fill_2
XFILLER_24_206 vdd vss gf180mcu_fd_sc_mcu7t5v0__fill_2
XFILLER_24_228 vdd vss gf180mcu_fd_sc_mcu7t5v0__fill_2
XFILLER_32_250 vdd vss gf180mcu_fd_sc_mcu7t5v0__fill_2
XANTENNA__2621__A3 _0219_ vdd vss gf180mcu_fd_sc_mcu7t5v0__antenna
XFILLER_20_423 vdd vss gf180mcu_fd_sc_mcu7t5v0__fill_2
XFILLER_9_490 vdd vss gf180mcu_fd_sc_mcu7t5v0__fill_2
XANTENNA__2385__A2 _0204_ vdd vss gf180mcu_fd_sc_mcu7t5v0__antenna
X_2707_ _0783_ net63 net3 _0864_ _0487_ vdd vss gf180mcu_fd_sc_mcu7t5v0__nand4_2
X_2638_ _0172_ _0516_ _0423_ _0424_ vdd vss gf180mcu_fd_sc_mcu7t5v0__aoi21_1
XFILLER_58_17 vdd vss gf180mcu_fd_sc_mcu7t5v0__fill_2
X_2569_ _0299_ _0351_ vdd vss gf180mcu_fd_sc_mcu7t5v0__clkinv_1
XANTENNA__1896__A1 _0935_ vdd vss gf180mcu_fd_sc_mcu7t5v0__antenna
XFILLER_59_114 vdd vss gf180mcu_fd_sc_mcu7t5v0__fill_2
XFILLER_59_158 vdd vss gf180mcu_fd_sc_mcu7t5v0__fill_2
XFILLER_59_147 vdd vss gf180mcu_fd_sc_mcu7t5v0__fillcap_4
XFILLER_67_180 vdd vss gf180mcu_fd_sc_mcu7t5v0__fillcap_4
XANTENNA__2073__A1 _1120_ vdd vss gf180mcu_fd_sc_mcu7t5v0__antenna
XFILLER_23_283 vdd vss gf180mcu_fd_sc_mcu7t5v0__fill_1
XANTENNA__1820__A1 _0756_ vdd vss gf180mcu_fd_sc_mcu7t5v0__antenna
XFILLER_11_456 vdd vss gf180mcu_fd_sc_mcu7t5v0__fill_2
XFILLER_11_445 vdd vss gf180mcu_fd_sc_mcu7t5v0__fill_2
XFILLER_7_405 vdd vss gf180mcu_fd_sc_mcu7t5v0__fillcap_4
XFILLER_11_478 vdd vss gf180mcu_fd_sc_mcu7t5v0__fill_2
XANTENNA__2128__A2 _1197_ vdd vss gf180mcu_fd_sc_mcu7t5v0__antenna
XFILLER_2_176 vdd vss gf180mcu_fd_sc_mcu7t5v0__fill_1
XFILLER_58_191 vdd vss gf180mcu_fd_sc_mcu7t5v0__fill_2
XFILLER_46_342 vdd vss gf180mcu_fd_sc_mcu7t5v0__fillcap_4
XFILLER_61_301 vdd vss gf180mcu_fd_sc_mcu7t5v0__fill_2
XFILLER_46_375 vdd vss gf180mcu_fd_sc_mcu7t5v0__fill_1
XFILLER_64_60 vdd vss gf180mcu_fd_sc_mcu7t5v0__fillcap_4
XFILLER_61_323 vdd vss gf180mcu_fd_sc_mcu7t5v0__fill_2
X_1940_ _0900_ _1014_ vdd vss gf180mcu_fd_sc_mcu7t5v0__clkbuf_1
XFILLER_14_250 vdd vss gf180mcu_fd_sc_mcu7t5v0__fill_1
XANTENNA__1811__A1 _0809_ vdd vss gf180mcu_fd_sc_mcu7t5v0__antenna
X_1871_ _0943_ _0946_ _0947_ vdd vss gf180mcu_fd_sc_mcu7t5v0__nor2_1
XFILLER_9_66 vdd vss gf180mcu_fd_sc_mcu7t5v0__fillcap_4
XFILLER_6_460 vdd vss gf180mcu_fd_sc_mcu7t5v0__fill_1
X_2423_ _0160_ _0104_ _0142_ _0195_ vdd vss gf180mcu_fd_sc_mcu7t5v0__nand3_1
XFILLER_43_2 vdd vss gf180mcu_fd_sc_mcu7t5v0__fill_1
XANTENNA__1878__A1 _0953_ vdd vss gf180mcu_fd_sc_mcu7t5v0__antenna
X_2354_ _0119_ _0120_ vdd vss gf180mcu_fd_sc_mcu7t5v0__clkinv_1
XFILLER_56_128 vdd vss gf180mcu_fd_sc_mcu7t5v0__fill_1
X_2285_ _0044_ _0045_ _0046_ vdd vss gf180mcu_fd_sc_mcu7t5v0__xor2_1
XFILLER_37_331 vdd vss gf180mcu_fd_sc_mcu7t5v0__fill_1
XFILLER_49_191 vdd vss gf180mcu_fd_sc_mcu7t5v0__fill_2
XFILLER_52_301 vdd vss gf180mcu_fd_sc_mcu7t5v0__fill_2
XFILLER_52_312 vdd vss gf180mcu_fd_sc_mcu7t5v0__fillcap_4
XANTENNA__2166__C _1239_ vdd vss gf180mcu_fd_sc_mcu7t5v0__antenna
XFILLER_12_209 vdd vss gf180mcu_fd_sc_mcu7t5v0__fill_2
XFILLER_40_507 vdd vss gf180mcu_fd_sc_mcu7t5v0__fill_2
XANTENNA__2055__A1 _1098_ vdd vss gf180mcu_fd_sc_mcu7t5v0__antenna
XFILLER_52_389 vdd vss gf180mcu_fd_sc_mcu7t5v0__fill_1
XANTENNA__1802__A1 _0694_ vdd vss gf180mcu_fd_sc_mcu7t5v0__antenna
XFILLER_20_275 vdd vss gf180mcu_fd_sc_mcu7t5v0__fill_2
XANTENNA__2358__A2 _0121_ vdd vss gf180mcu_fd_sc_mcu7t5v0__antenna
XANTENNA__1869__A1 _0694_ vdd vss gf180mcu_fd_sc_mcu7t5v0__antenna
XANTENNA__2530__A2 _0298_ vdd vss gf180mcu_fd_sc_mcu7t5v0__antenna
XFILLER_47_106 vdd vss gf180mcu_fd_sc_mcu7t5v0__fill_2
XFILLER_55_172 vdd vss gf180mcu_fd_sc_mcu7t5v0__fill_2
XFILLER_34_63 vdd vss gf180mcu_fd_sc_mcu7t5v0__fill_2
XFILLER_34_96 vdd vss gf180mcu_fd_sc_mcu7t5v0__fill_2
XFILLER_11_253 vdd vss gf180mcu_fd_sc_mcu7t5v0__fill_1
XFILLER_11_286 vdd vss gf180mcu_fd_sc_mcu7t5v0__fill_1
XFILLER_7_235 vdd vss gf180mcu_fd_sc_mcu7t5v0__fillcap_8
XANTENNA__2349__A2 _1219_ vdd vss gf180mcu_fd_sc_mcu7t5v0__antenna
XFILLER_50_40 vdd vss gf180mcu_fd_sc_mcu7t5v0__fill_2
XFILLER_50_51 vdd vss gf180mcu_fd_sc_mcu7t5v0__fill_2
XTAP_507 vdd vss gf180mcu_fd_sc_mcu7t5v0__filltie
XTAP_529 vdd vss gf180mcu_fd_sc_mcu7t5v0__filltie
XTAP_518 vdd vss gf180mcu_fd_sc_mcu7t5v0__filltie
XFILLER_3_496 vdd vss gf180mcu_fd_sc_mcu7t5v0__fill_1
XFILLER_3_485 vdd vss gf180mcu_fd_sc_mcu7t5v0__fill_1
XANTENNA__2521__A2 _0244_ vdd vss gf180mcu_fd_sc_mcu7t5v0__antenna
X_2070_ _0521_ _1139_ _1140_ vdd vss gf180mcu_fd_sc_mcu7t5v0__nor2_1
XFILLER_19_320 vdd vss gf180mcu_fd_sc_mcu7t5v0__fill_2
XANTENNA__2267__B _0025_ vdd vss gf180mcu_fd_sc_mcu7t5v0__antenna
XANTENNA__2285__A1 _0044_ vdd vss gf180mcu_fd_sc_mcu7t5v0__antenna
XFILLER_19_342 vdd vss gf180mcu_fd_sc_mcu7t5v0__fill_2
XFILLER_19_386 vdd vss gf180mcu_fd_sc_mcu7t5v0__fill_2
XFILLER_46_161 vdd vss gf180mcu_fd_sc_mcu7t5v0__fill_1
XFILLER_34_378 vdd vss gf180mcu_fd_sc_mcu7t5v0__fill_1
XFILLER_34_389 vdd vss gf180mcu_fd_sc_mcu7t5v0__fill_1
X_1923_ _0907_ _0851_ _0998_ vdd vss gf180mcu_fd_sc_mcu7t5v0__nor2_1
XANTENNA__1397__I _0387_ vdd vss gf180mcu_fd_sc_mcu7t5v0__antenna
X_1854_ _0929_ _0926_ _0930_ vdd vss gf180mcu_fd_sc_mcu7t5v0__and2_1
X_1785_ _0700_ _0731_ _0861_ _0862_ vdd vss gf180mcu_fd_sc_mcu7t5v0__nor3_1
X_2406_ _0167_ _0175_ _0176_ vdd vss gf180mcu_fd_sc_mcu7t5v0__nand2_1
X_2337_ _0291_ _1330_ _0101_ vdd vss gf180mcu_fd_sc_mcu7t5v0__and2_1
X_2268_ _1332_ _1340_ _0022_ _0026_ _0027_ vdd vss gf180mcu_fd_sc_mcu7t5v0__oai211_1
XFILLER_55_18 vdd vss gf180mcu_fd_sc_mcu7t5v0__fill_2
XANTENNA__2276__A1 _1205_ vdd vss gf180mcu_fd_sc_mcu7t5v0__antenna
XFILLER_65_492 vdd vss gf180mcu_fd_sc_mcu7t5v0__fillcap_4
XFILLER_25_312 vdd vss gf180mcu_fd_sc_mcu7t5v0__fill_2
XANTENNA__2733__CLK net67 vdd vss gf180mcu_fd_sc_mcu7t5v0__antenna
X_2199_ _1247_ _1275_ vdd vss gf180mcu_fd_sc_mcu7t5v0__buf_1
XFILLER_37_183 vdd vss gf180mcu_fd_sc_mcu7t5v0__fill_1
XFILLER_52_120 vdd vss gf180mcu_fd_sc_mcu7t5v0__fill_2
XANTENNA__2028__A1 _1099_ vdd vss gf180mcu_fd_sc_mcu7t5v0__antenna
XANTENNA__2579__A2 _0360_ vdd vss gf180mcu_fd_sc_mcu7t5v0__antenna
XFILLER_0_422 vdd vss gf180mcu_fd_sc_mcu7t5v0__fillcap_16
XFILLER_63_407 vdd vss gf180mcu_fd_sc_mcu7t5v0__fillcap_16
XANTENNA__2267__A1 _0023_ vdd vss gf180mcu_fd_sc_mcu7t5v0__antenna
XFILLER_16_323 vdd vss gf180mcu_fd_sc_mcu7t5v0__fill_1
XFILLER_43_120 vdd vss gf180mcu_fd_sc_mcu7t5v0__fill_2
XFILLER_45_73 vdd vss gf180mcu_fd_sc_mcu7t5v0__fill_2
XANTENNA__2019__A1 p_shaping_Q.p_shaping_I.bit_in_1 vdd vss gf180mcu_fd_sc_mcu7t5v0__antenna
XFILLER_16_378 vdd vss gf180mcu_fd_sc_mcu7t5v0__fill_2
XFILLER_31_304 vdd vss gf180mcu_fd_sc_mcu7t5v0__fill_2
XFILLER_31_326 vdd vss gf180mcu_fd_sc_mcu7t5v0__fill_1
XFILLER_31_337 vdd vss gf180mcu_fd_sc_mcu7t5v0__fillcap_4
XANTENNA__2106__I _1173_ vdd vss gf180mcu_fd_sc_mcu7t5v0__antenna
XFILLER_61_83 vdd vss gf180mcu_fd_sc_mcu7t5v0__fill_2
XFILLER_6_34 vdd vss gf180mcu_fd_sc_mcu7t5v0__fill_1
X_1570_ _0562_ _0591_ _0650_ vdd vss gf180mcu_fd_sc_mcu7t5v0__nor2_1
XANTENNA__1950__B1 _0886_ vdd vss gf180mcu_fd_sc_mcu7t5v0__antenna
XTAP_304 vdd vss gf180mcu_fd_sc_mcu7t5v0__filltie
XTAP_315 vdd vss gf180mcu_fd_sc_mcu7t5v0__filltie
XTAP_326 vdd vss gf180mcu_fd_sc_mcu7t5v0__filltie
XTAP_337 vdd vss gf180mcu_fd_sc_mcu7t5v0__filltie
XTAP_348 vdd vss gf180mcu_fd_sc_mcu7t5v0__filltie
XANTENNA__1680__I _0758_ vdd vss gf180mcu_fd_sc_mcu7t5v0__antenna
XTAP_359 vdd vss gf180mcu_fd_sc_mcu7t5v0__filltie
X_2122_ _0215_ _1161_ _1191_ vdd vss gf180mcu_fd_sc_mcu7t5v0__or2_1
X_2053_ _1101_ _1123_ _1030_ _1124_ vdd vss gf180mcu_fd_sc_mcu7t5v0__oai21_1
XFILLER_47_492 vdd vss gf180mcu_fd_sc_mcu7t5v0__fillcap_4
XFILLER_22_337 vdd vss gf180mcu_fd_sc_mcu7t5v0__fill_2
XFILLER_34_186 vdd vss gf180mcu_fd_sc_mcu7t5v0__fill_2
X_1906_ _0977_ _0523_ _0980_ _0981_ vdd vss gf180mcu_fd_sc_mcu7t5v0__mux2_2
XANTENNA__2430__A1 _0178_ vdd vss gf180mcu_fd_sc_mcu7t5v0__antenna
XFILLER_30_392 vdd vss gf180mcu_fd_sc_mcu7t5v0__fill_1
X_1837_ _0909_ _0911_ _0913_ _0914_ vdd vss gf180mcu_fd_sc_mcu7t5v0__or3_1
X_1768_ _0706_ _0810_ _0699_ _0846_ vdd vss gf180mcu_fd_sc_mcu7t5v0__oai21_1
X_1699_ _0548_ _0777_ vdd vss gf180mcu_fd_sc_mcu7t5v0__clkbuf_1
XFILLER_1_219 vdd vss gf180mcu_fd_sc_mcu7t5v0__fill_2
XFILLER_66_17 vdd vss gf180mcu_fd_sc_mcu7t5v0__fill_2
XFILLER_57_245 vdd vss gf180mcu_fd_sc_mcu7t5v0__fill_2
XFILLER_57_234 vdd vss gf180mcu_fd_sc_mcu7t5v0__fill_2
XFILLER_57_212 vdd vss gf180mcu_fd_sc_mcu7t5v0__fill_1
XANTENNA__2725__RN net53 vdd vss gf180mcu_fd_sc_mcu7t5v0__antenna
XANTENNA__2249__A1 _0508_ vdd vss gf180mcu_fd_sc_mcu7t5v0__antenna
XANTENNA__1472__A2 _0549_ vdd vss gf180mcu_fd_sc_mcu7t5v0__antenna
XFILLER_13_304 vdd vss gf180mcu_fd_sc_mcu7t5v0__fill_2
XFILLER_25_164 vdd vss gf180mcu_fd_sc_mcu7t5v0__fillcap_4
XFILLER_13_326 vdd vss gf180mcu_fd_sc_mcu7t5v0__fill_1
XFILLER_13_359 vdd vss gf180mcu_fd_sc_mcu7t5v0__fill_1
XANTENNA__2421__A1 _0178_ vdd vss gf180mcu_fd_sc_mcu7t5v0__antenna
Xoutput31 net31 Q[9] vdd vss gf180mcu_fd_sc_mcu7t5v0__clkbuf_3
Xoutput20 net20 Q[10] vdd vss gf180mcu_fd_sc_mcu7t5v0__clkbuf_3
Xoutput42 net42 addQ[4] vdd vss gf180mcu_fd_sc_mcu7t5v0__clkbuf_3
Xoutput7 net7 I[10] vdd vss gf180mcu_fd_sc_mcu7t5v0__clkbuf_3
XANTENNA__2488__A1 _0261_ vdd vss gf180mcu_fd_sc_mcu7t5v0__antenna
XFILLER_0_285 vdd vss gf180mcu_fd_sc_mcu7t5v0__fillcap_4
XFILLER_48_267 vdd vss gf180mcu_fd_sc_mcu7t5v0__fillcap_4
XFILLER_63_215 vdd vss gf180mcu_fd_sc_mcu7t5v0__fill_2
XFILLER_63_204 vdd vss gf180mcu_fd_sc_mcu7t5v0__fill_1
XFILLER_63_248 vdd vss gf180mcu_fd_sc_mcu7t5v0__fill_2
XFILLER_56_94 vdd vss gf180mcu_fd_sc_mcu7t5v0__fill_1
XFILLER_16_164 vdd vss gf180mcu_fd_sc_mcu7t5v0__fill_2
XFILLER_16_186 vdd vss gf180mcu_fd_sc_mcu7t5v0__fillcap_8
XFILLER_31_123 vdd vss gf180mcu_fd_sc_mcu7t5v0__fill_2
XFILLER_44_495 vdd vss gf180mcu_fd_sc_mcu7t5v0__fillcap_8
X_2740_ _0015_ net52 net64 net39 vdd vss gf180mcu_fd_sc_mcu7t5v0__dffrnq_1
XANTENNA__1766__A3 _0628_ vdd vss gf180mcu_fd_sc_mcu7t5v0__antenna
XFILLER_12_392 vdd vss gf180mcu_fd_sc_mcu7t5v0__fill_1
XANTENNA__2280__B _0248_ vdd vss gf180mcu_fd_sc_mcu7t5v0__antenna
XFILLER_8_341 vdd vss gf180mcu_fd_sc_mcu7t5v0__fill_2
X_2671_ _0453_ _0454_ _0457_ _0458_ vdd vss gf180mcu_fd_sc_mcu7t5v0__or3_1
X_1622_ _0618_ _0698_ _0701_ _0702_ vdd vss gf180mcu_fd_sc_mcu7t5v0__oai21_1
X_1553_ _0612_ _0623_ _0632_ _0633_ _0634_ vdd vss gf180mcu_fd_sc_mcu7t5v0__oai211_2
X_1484_ _0564_ _0565_ vdd vss gf180mcu_fd_sc_mcu7t5v0__clkbuf_2
XTAP_145 vdd vss gf180mcu_fd_sc_mcu7t5v0__filltie
XTAP_156 vdd vss gf180mcu_fd_sc_mcu7t5v0__filltie
XTAP_189 vdd vss gf180mcu_fd_sc_mcu7t5v0__filltie
XTAP_178 vdd vss gf180mcu_fd_sc_mcu7t5v0__filltie
XTAP_167 vdd vss gf180mcu_fd_sc_mcu7t5v0__filltie
XANTENNA__2439__C _0173_ vdd vss gf180mcu_fd_sc_mcu7t5v0__antenna
XFILLER_39_234 vdd vss gf180mcu_fd_sc_mcu7t5v0__fill_2
XFILLER_39_267 vdd vss gf180mcu_fd_sc_mcu7t5v0__fill_2
X_2105_ _1172_ _1173_ vdd vss gf180mcu_fd_sc_mcu7t5v0__buf_1
X_2036_ _1097_ _1107_ _1108_ vdd vss gf180mcu_fd_sc_mcu7t5v0__xnor2_1
XANTENNA_fanout49_I _0005_ vdd vss gf180mcu_fd_sc_mcu7t5v0__antenna
XFILLER_35_451 vdd vss gf180mcu_fd_sc_mcu7t5v0__fill_2
XFILLER_52_19 vdd vss gf180mcu_fd_sc_mcu7t5v0__fill_2
XANTENNA__2651__A1 _0400_ vdd vss gf180mcu_fd_sc_mcu7t5v0__antenna
XFILLER_22_101 vdd vss gf180mcu_fd_sc_mcu7t5v0__fillcap_4
XFILLER_35_495 vdd vss gf180mcu_fd_sc_mcu7t5v0__fill_2
XFILLER_10_318 vdd vss gf180mcu_fd_sc_mcu7t5v0__fill_1
XFILLER_2_506 vdd vss gf180mcu_fd_sc_mcu7t5v0__fill_2
XANTENNA__2706__A2 _0784_ vdd vss gf180mcu_fd_sc_mcu7t5v0__antenna
XFILLER_45_215 vdd vss gf180mcu_fd_sc_mcu7t5v0__fill_2
XFILLER_45_248 vdd vss gf180mcu_fd_sc_mcu7t5v0__fillcap_4
XFILLER_13_123 vdd vss gf180mcu_fd_sc_mcu7t5v0__fill_2
XFILLER_9_105 vdd vss gf180mcu_fd_sc_mcu7t5v0__fillcap_8
XFILLER_42_96 vdd vss gf180mcu_fd_sc_mcu7t5v0__fill_1
XANTENNA__1905__B1 _0924_ vdd vss gf180mcu_fd_sc_mcu7t5v0__antenna
XFILLER_47_9 vdd vss gf180mcu_fd_sc_mcu7t5v0__fill_2
XANTENNA__1684__A2 _0645_ vdd vss gf180mcu_fd_sc_mcu7t5v0__antenna
XANTENNA__2633__A1 _0316_ vdd vss gf180mcu_fd_sc_mcu7t5v0__antenna
XFILLER_32_410 vdd vss gf180mcu_fd_sc_mcu7t5v0__fill_2
XFILLER_44_270 vdd vss gf180mcu_fd_sc_mcu7t5v0__fill_2
XFILLER_51_229 vdd vss gf180mcu_fd_sc_mcu7t5v0__fill_1
XFILLER_32_443 vdd vss gf180mcu_fd_sc_mcu7t5v0__fill_2
XFILLER_32_476 vdd vss gf180mcu_fd_sc_mcu7t5v0__fillcap_4
XFILLER_32_487 vdd vss gf180mcu_fd_sc_mcu7t5v0__fill_2
XANTENNA__2397__B1 _0082_ vdd vss gf180mcu_fd_sc_mcu7t5v0__antenna
X_2723_ _0007_ net56 net49 p_shaping_Q.p_shaping_I.counter\[1\] vdd vss gf180mcu_fd_sc_mcu7t5v0__dffrnq_1
XFILLER_8_182 vdd vss gf180mcu_fd_sc_mcu7t5v0__fillcap_8
X_2654_ _0415_ _0441_ _0412_ _0442_ vdd vss gf180mcu_fd_sc_mcu7t5v0__aoi21_1
X_2585_ _0183_ _0515_ _0367_ _0368_ vdd vss gf180mcu_fd_sc_mcu7t5v0__oai21_1
X_1605_ _0683_ _0684_ _0685_ vdd vss gf180mcu_fd_sc_mcu7t5v0__xnor2_1
X_1536_ _0591_ _0600_ _0376_ _0617_ vdd vss gf180mcu_fd_sc_mcu7t5v0__mux2_2
XANTENNA__1911__A3 _0691_ vdd vss gf180mcu_fd_sc_mcu7t5v0__antenna
X_1467_ _0418_ _0548_ vdd vss gf180mcu_fd_sc_mcu7t5v0__clkbuf_1
X_1398_ _0355_ _0408_ vdd vss gf180mcu_fd_sc_mcu7t5v0__clkinv_1
XFILLER_27_215 vdd vss gf180mcu_fd_sc_mcu7t5v0__fill_1
XFILLER_67_395 vdd vss gf180mcu_fd_sc_mcu7t5v0__fillcap_4
X_2019_ p_shaping_Q.p_shaping_I.bit_in_1 _1089_ _1090_ _0834_ _1091_ vdd vss gf180mcu_fd_sc_mcu7t5v0__aoi211_2
XANTENNA__2624__A1 _0400_ vdd vss gf180mcu_fd_sc_mcu7t5v0__antenna
XFILLER_23_421 vdd vss gf180mcu_fd_sc_mcu7t5v0__fill_2
XFILLER_23_465 vdd vss gf180mcu_fd_sc_mcu7t5v0__fill_2
XFILLER_10_126 vdd vss gf180mcu_fd_sc_mcu7t5v0__fill_2
XFILLER_6_108 vdd vss gf180mcu_fd_sc_mcu7t5v0__fillcap_16
XANTENNA__1363__A1 _1203_ vdd vss gf180mcu_fd_sc_mcu7t5v0__antenna
XFILLER_58_373 vdd vss gf180mcu_fd_sc_mcu7t5v0__fill_2
XFILLER_58_362 vdd vss gf180mcu_fd_sc_mcu7t5v0__fillcap_4
XFILLER_37_30 vdd vss gf180mcu_fd_sc_mcu7t5v0__fill_1
XFILLER_14_410 vdd vss gf180mcu_fd_sc_mcu7t5v0__fill_2
XFILLER_53_40 vdd vss gf180mcu_fd_sc_mcu7t5v0__fill_2
XFILLER_53_73 vdd vss gf180mcu_fd_sc_mcu7t5v0__fill_1
XFILLER_41_295 vdd vss gf180mcu_fd_sc_mcu7t5v0__fill_2
XFILLER_52_7 vdd vss gf180mcu_fd_sc_mcu7t5v0__fill_2
XFILLER_5_141 vdd vss gf180mcu_fd_sc_mcu7t5v0__fill_1
XFILLER_5_174 vdd vss gf180mcu_fd_sc_mcu7t5v0__fillcap_4